<?xml version="1.0" encoding="UTF-8" standalone="yes"?><template><description></description><name>VM_nifi_flow</name><snippet><connections><id>9181c650-543e-49ee-ae31-5898012453f1</id><parentGroupId>7c84501d-d10c-407c-b9f3-1d80e38fe36a</parentGroupId><backPressureDataSizeThreshold>0 MB</backPressureDataSizeThreshold><backPressureObjectThreshold>0</backPressureObjectThreshold><destination><groupId>7c84501d-d10c-407c-b9f3-1d80e38fe36a</groupId><id>e84b4239-e37b-4598-a573-9768142243d8</id><type>PROCESSOR</type></destination><flowFileExpiration>0 sec</flowFileExpiration><labelIndex>1</labelIndex><name></name><selectedRelationships>success</selectedRelationships><source><groupId>7c84501d-d10c-407c-b9f3-1d80e38fe36a</groupId><id>8792f21c-a172-49ae-913d-8531d15b8bcb</id><type>PROCESSOR</type></source><zIndex>0</zIndex></connections><connections><id>26f25baa-20c4-4790-9cbf-853e685ecdb3</id><parentGroupId>7c84501d-d10c-407c-b9f3-1d80e38fe36a</parentGroupId><backPressureDataSizeThreshold>0 MB</backPressureDataSizeThreshold><backPressureObjectThreshold>0</backPressureObjectThreshold><destination><groupId>7c84501d-d10c-407c-b9f3-1d80e38fe36a</groupId><id>a90db015-9618-44e7-b017-756f8678e110</id><type>PROCESSOR</type></destination><flowFileExpiration>0 sec</flowFileExpiration><labelIndex>1</labelIndex><name></name><selectedRelationships>success</selectedRelationships><source><groupId>7c84501d-d10c-407c-b9f3-1d80e38fe36a</groupId><id>c314a95a-3bf4-4419-afdf-c487e6649708</id><type>PROCESSOR</type></source><zIndex>0</zIndex></connections><connections><id>4083815a-2b19-4695-baa3-1c87e02b63ac</id><parentGroupId>7c84501d-d10c-407c-b9f3-1d80e38fe36a</parentGroupId><backPressureDataSizeThreshold>0 MB</backPressureDataSizeThreshold><backPressureObjectThreshold>0</backPressureObjectThreshold><destination><groupId>7c84501d-d10c-407c-b9f3-1d80e38fe36a</groupId><id>c314a95a-3bf4-4419-afdf-c487e6649708</id><type>PROCESSOR</type></destination><flowFileExpiration>0 sec</flowFileExpiration><labelIndex>1</labelIndex><name></name><selectedRelationships>success</selectedRelationships><source><groupId>7c84501d-d10c-407c-b9f3-1d80e38fe36a</groupId><id>0211c834-f55b-4ddf-8227-4760c580197e</id><type>PROCESSOR</type></source><zIndex>0</zIndex></connections><connections><id>b1e0eebe-9078-435c-9a99-373146213dac</id><parentGroupId>7c84501d-d10c-407c-b9f3-1d80e38fe36a</parentGroupId><backPressureDataSizeThreshold>0 MB</backPressureDataSizeThreshold><backPressureObjectThreshold>0</backPressureObjectThreshold><destination><groupId>7c84501d-d10c-407c-b9f3-1d80e38fe36a</groupId><id>2524c316-23a4-492c-b2ac-44f018b3c71a</id><type>PROCESSOR</type></destination><flowFileExpiration>0 sec</flowFileExpiration><labelIndex>1</labelIndex><name></name><selectedRelationships>merged</selectedRelationships><source><groupId>7c84501d-d10c-407c-b9f3-1d80e38fe36a</groupId><id>9921085d-a607-4fa2-b3c4-56a3a8b7f68f</id><type>PROCESSOR</type></source><zIndex>0</zIndex></connections><connections><id>bdfd620e-274b-448e-8998-8371e751d183</id><parentGroupId>7c84501d-d10c-407c-b9f3-1d80e38fe36a</parentGroupId><backPressureDataSizeThreshold>0 MB</backPressureDataSizeThreshold><backPressureObjectThreshold>0</backPressureObjectThreshold><destination><groupId>7c84501d-d10c-407c-b9f3-1d80e38fe36a</groupId><id>c9952ef5-baa5-4d94-a689-5761f38a8b5b</id><type>PROCESSOR</type></destination><flowFileExpiration>0 sec</flowFileExpiration><labelIndex>1</labelIndex><name></name><selectedRelationships>success</selectedRelationships><source><groupId>7c84501d-d10c-407c-b9f3-1d80e38fe36a</groupId><id>e84b4239-e37b-4598-a573-9768142243d8</id><type>PROCESSOR</type></source><zIndex>0</zIndex></connections><connections><id>0ee2ab79-ffd4-45ec-b13b-3c18826c208b</id><parentGroupId>7c84501d-d10c-407c-b9f3-1d80e38fe36a</parentGroupId><backPressureDataSizeThreshold>0 MB</backPressureDataSizeThreshold><backPressureObjectThreshold>0</backPressureObjectThreshold><destination><groupId>7c84501d-d10c-407c-b9f3-1d80e38fe36a</groupId><id>0211c834-f55b-4ddf-8227-4760c580197e</id><type>PROCESSOR</type></destination><flowFileExpiration>0 sec</flowFileExpiration><labelIndex>1</labelIndex><name></name><selectedRelationships>success</selectedRelationships><source><groupId>7c84501d-d10c-407c-b9f3-1d80e38fe36a</groupId><id>2524c316-23a4-492c-b2ac-44f018b3c71a</id><type>PROCESSOR</type></source><zIndex>0</zIndex></connections><connections><id>f504aadf-8f0e-4729-a4fa-a13522c2c77d</id><parentGroupId>7c84501d-d10c-407c-b9f3-1d80e38fe36a</parentGroupId><backPressureDataSizeThreshold>0 MB</backPressureDataSizeThreshold><backPressureObjectThreshold>0</backPressureObjectThreshold><destination><groupId>7c84501d-d10c-407c-b9f3-1d80e38fe36a</groupId><id>8792f21c-a172-49ae-913d-8531d15b8bcb</id><type>PROCESSOR</type></destination><flowFileExpiration>0 sec</flowFileExpiration><labelIndex>1</labelIndex><name></name><selectedRelationships>success</selectedRelationships><source><groupId>7c84501d-d10c-407c-b9f3-1d80e38fe36a</groupId><id>a79f0e29-99d6-4102-ae45-e50959f400bd</id><type>PROCESSOR</type></source><zIndex>0</zIndex></connections><connections><id>1beef735-c4f3-48e9-9f0f-ff7e76728a9e</id><parentGroupId>7c84501d-d10c-407c-b9f3-1d80e38fe36a</parentGroupId><backPressureDataSizeThreshold>0 MB</backPressureDataSizeThreshold><backPressureObjectThreshold>0</backPressureObjectThreshold><destination><groupId>7c84501d-d10c-407c-b9f3-1d80e38fe36a</groupId><id>4eee1016-7d6d-48af-a945-b635192df1df</id><type>PROCESSOR</type></destination><flowFileExpiration>0 sec</flowFileExpiration><labelIndex>1</labelIndex><name></name><selectedRelationships>success</selectedRelationships><source><groupId>7c84501d-d10c-407c-b9f3-1d80e38fe36a</groupId><id>6fd6127c-4e14-4845-a2b4-dc71403b9f42</id><type>PROCESSOR</type></source><zIndex>0</zIndex></connections><connections><id>3a5566a8-28e3-45b8-9644-03171b60c189</id><parentGroupId>7c84501d-d10c-407c-b9f3-1d80e38fe36a</parentGroupId><backPressureDataSizeThreshold>0 MB</backPressureDataSizeThreshold><backPressureObjectThreshold>0</backPressureObjectThreshold><destination><groupId>7c84501d-d10c-407c-b9f3-1d80e38fe36a</groupId><id>6fd6127c-4e14-4845-a2b4-dc71403b9f42</id><type>PROCESSOR</type></destination><flowFileExpiration>0 sec</flowFileExpiration><labelIndex>1</labelIndex><name></name><selectedRelationships>merged</selectedRelationships><source><groupId>7c84501d-d10c-407c-b9f3-1d80e38fe36a</groupId><id>c9952ef5-baa5-4d94-a689-5761f38a8b5b</id><type>PROCESSOR</type></source><zIndex>0</zIndex></connections><connections><id>8349c552-85be-4bc0-b9b3-1e1cab13b1d5</id><parentGroupId>7c84501d-d10c-407c-b9f3-1d80e38fe36a</parentGroupId><backPressureDataSizeThreshold>0 MB</backPressureDataSizeThreshold><backPressureObjectThreshold>0</backPressureObjectThreshold><destination><groupId>7c84501d-d10c-407c-b9f3-1d80e38fe36a</groupId><id>9921085d-a607-4fa2-b3c4-56a3a8b7f68f</id><type>PROCESSOR</type></destination><flowFileExpiration>0 sec</flowFileExpiration><labelIndex>1</labelIndex><name></name><selectedRelationships>success</selectedRelationships><source><groupId>7c84501d-d10c-407c-b9f3-1d80e38fe36a</groupId><id>f36950cb-f590-40d0-b9ec-13852f421e9d</id><type>PROCESSOR</type></source><zIndex>0</zIndex></connections><connections><id>ae3493b7-9ca2-49fe-941c-50f1652951fc</id><parentGroupId>7c84501d-d10c-407c-b9f3-1d80e38fe36a</parentGroupId><backPressureDataSizeThreshold>0 MB</backPressureDataSizeThreshold><backPressureObjectThreshold>0</backPressureObjectThreshold><destination><groupId>7c84501d-d10c-407c-b9f3-1d80e38fe36a</groupId><id>5c274137-c31b-4b43-842d-3e047a9b8908</id><type>PROCESSOR</type></destination><flowFileExpiration>0 sec</flowFileExpiration><labelIndex>1</labelIndex><name></name><selectedRelationships>failure</selectedRelationships><source><groupId>7c84501d-d10c-407c-b9f3-1d80e38fe36a</groupId><id>8792f21c-a172-49ae-913d-8531d15b8bcb</id><type>PROCESSOR</type></source><zIndex>0</zIndex></connections><processors><id>0211c834-f55b-4ddf-8227-4760c580197e</id><parentGroupId>7c84501d-d10c-407c-b9f3-1d80e38fe36a</parentGroupId><position><x>1451.4033126831055</x><y>351.7496337890625</y></position><config><bulletinLevel>WARN</bulletinLevel><comments></comments><concurrentlySchedulableTaskCount>1</concurrentlySchedulableTaskCount><defaultConcurrentTasks><entry><key>TIMER_DRIVEN</key><value>1</value></entry><entry><key>EVENT_DRIVEN</key><value>0</value></entry><entry><key>CRON_DRIVEN</key><value>1</value></entry></defaultConcurrentTasks><defaultSchedulingPeriod><entry><key>TIMER_DRIVEN</key><value>0 sec</value></entry><entry><key>CRON_DRIVEN</key><value>* * * * * ?</value></entry></defaultSchedulingPeriod><descriptors><entry><key>Hadoop configuration files</key><value><description>A comma-separated list of Hadoop configuration files</description><displayName>Hadoop configuration files</displayName><dynamic>false</dynamic><name>Hadoop configuration files</name><required>false</required><sensitive>false</sensitive><supportsEl>false</supportsEl></value></entry><entry><key>Record schema</key><value><description>Outgoing Avro schema for each record created from a JSON object</description><displayName>Record schema</displayName><dynamic>false</dynamic><name>Record schema</name><required>true</required><sensitive>false</sensitive><supportsEl>true</supportsEl></value></entry></descriptors><lossTolerant>false</lossTolerant><penaltyDuration>30 sec</penaltyDuration><properties><entry><key>Hadoop configuration files</key><value>/etc/hadoop/2.4.0.0-169/0/hdfs-site.xml,/etc/hadoop/2.4.0.0-169/0/core-site.xml</value></entry><entry><key>Record schema</key><value>${inferred.avro.schema}</value></entry></properties><runDurationMillis>0</runDurationMillis><schedulingPeriod>0 min</schedulingPeriod><schedulingStrategy>TIMER_DRIVEN</schedulingStrategy><yieldDuration>1 sec</yieldDuration></config><name>ConvertJSONToAvro</name><relationships><autoTerminate>true</autoTerminate><description>JSON content that could not be processed</description><name>failure</name></relationships><relationships><autoTerminate>true</autoTerminate><description>JSON content that could not be converted</description><name>incompatible</name></relationships><relationships><autoTerminate>false</autoTerminate><description>Avro content that was converted successfully from JSON</description><name>success</name></relationships><state>RUNNING</state><style/><supportsEventDriven>false</supportsEventDriven><supportsParallelProcessing>true</supportsParallelProcessing><type>org.apache.nifi.processors.kite.ConvertJSONToAvro</type></processors><processors><id>4eee1016-7d6d-48af-a945-b635192df1df</id><parentGroupId>7c84501d-d10c-407c-b9f3-1d80e38fe36a</parentGroupId><position><x>-893.2378540039062</x><y>1109.5311889648438</y></position><config><bulletinLevel>WARN</bulletinLevel><comments></comments><concurrentlySchedulableTaskCount>1</concurrentlySchedulableTaskCount><defaultConcurrentTasks><entry><key>TIMER_DRIVEN</key><value>1</value></entry><entry><key>EVENT_DRIVEN</key><value>0</value></entry><entry><key>CRON_DRIVEN</key><value>1</value></entry></defaultConcurrentTasks><defaultSchedulingPeriod><entry><key>TIMER_DRIVEN</key><value>0 sec</value></entry><entry><key>CRON_DRIVEN</key><value>* * * * * ?</value></entry></defaultSchedulingPeriod><descriptors><entry><key>Hadoop Configuration Resources</key><value><description>A file or comma separated list of files which contains the Hadoop file system configuration. Without this, Hadoop will search the classpath for a 'core-site.xml' and 'hdfs-site.xml' file or will revert to a default configuration.</description><displayName>Hadoop Configuration Resources</displayName><dynamic>false</dynamic><name>Hadoop Configuration Resources</name><required>false</required><sensitive>false</sensitive><supportsEl>false</supportsEl></value></entry><entry><key>Kerberos Principal</key><value><description>Kerberos principal to authenticate as. Requires nifi.kerberos.krb5.file to be set in your nifi.properties</description><displayName>Kerberos Principal</displayName><dynamic>false</dynamic><name>Kerberos Principal</name><required>false</required><sensitive>false</sensitive><supportsEl>false</supportsEl></value></entry><entry><key>Kerberos Keytab</key><value><description>Kerberos keytab associated with the principal. Requires nifi.kerberos.krb5.file to be set in your nifi.properties</description><displayName>Kerberos Keytab</displayName><dynamic>false</dynamic><name>Kerberos Keytab</name><required>false</required><sensitive>false</sensitive><supportsEl>false</supportsEl></value></entry><entry><key>Kerberos Relogin Period</key><value><defaultValue>4 hours</defaultValue><description>Period of time which should pass before attempting a kerberos relogin</description><displayName>Kerberos Relogin Period</displayName><dynamic>false</dynamic><name>Kerberos Relogin Period</name><required>false</required><sensitive>false</sensitive><supportsEl>false</supportsEl></value></entry><entry><key>Directory</key><value><description>The parent HDFS directory to which files should be written</description><displayName>Directory</displayName><dynamic>false</dynamic><name>Directory</name><required>true</required><sensitive>false</sensitive><supportsEl>true</supportsEl></value></entry><entry><key>Conflict Resolution Strategy</key><value><allowableValues><displayName>replace</displayName><value>replace</value></allowableValues><allowableValues><displayName>ignore</displayName><value>ignore</value></allowableValues><allowableValues><displayName>fail</displayName><value>fail</value></allowableValues><defaultValue>fail</defaultValue><description>Indicates what should happen when a file with the same name already exists in the output directory</description><displayName>Conflict Resolution Strategy</displayName><dynamic>false</dynamic><name>Conflict Resolution Strategy</name><required>true</required><sensitive>false</sensitive><supportsEl>false</supportsEl></value></entry><entry><key>Block Size</key><value><description>Size of each block as written to HDFS. This overrides the Hadoop Configuration</description><displayName>Block Size</displayName><dynamic>false</dynamic><name>Block Size</name><required>false</required><sensitive>false</sensitive><supportsEl>false</supportsEl></value></entry><entry><key>IO Buffer Size</key><value><description>Amount of memory to use to buffer file contents during IO. This overrides the Hadoop Configuration</description><displayName>IO Buffer Size</displayName><dynamic>false</dynamic><name>IO Buffer Size</name><required>false</required><sensitive>false</sensitive><supportsEl>false</supportsEl></value></entry><entry><key>Replication</key><value><description>Number of times that HDFS will replicate each file. This overrides the Hadoop Configuration</description><displayName>Replication</displayName><dynamic>false</dynamic><name>Replication</name><required>false</required><sensitive>false</sensitive><supportsEl>false</supportsEl></value></entry><entry><key>Permissions umask</key><value><description>A umask represented as an octal number which determines the permissions of files written to HDFS. This overrides the Hadoop Configuration dfs.umaskmode</description><displayName>Permissions umask</displayName><dynamic>false</dynamic><name>Permissions umask</name><required>false</required><sensitive>false</sensitive><supportsEl>false</supportsEl></value></entry><entry><key>Remote Owner</key><value><description>Changes the owner of the HDFS file to this value after it is written. This only works if NiFi is running as a user that has HDFS super user privilege to change owner</description><displayName>Remote Owner</displayName><dynamic>false</dynamic><name>Remote Owner</name><required>false</required><sensitive>false</sensitive><supportsEl>false</supportsEl></value></entry><entry><key>Remote Group</key><value><description>Changes the group of the HDFS file to this value after it is written. This only works if NiFi is running as a user that has HDFS super user privilege to change group</description><displayName>Remote Group</displayName><dynamic>false</dynamic><name>Remote Group</name><required>false</required><sensitive>false</sensitive><supportsEl>false</supportsEl></value></entry><entry><key>Compression codec</key><value><allowableValues><displayName>NONE</displayName><value>NONE</value></allowableValues><allowableValues><displayName>DEFAULT</displayName><value>DEFAULT</value></allowableValues><allowableValues><displayName>BZIP</displayName><value>BZIP</value></allowableValues><allowableValues><displayName>GZIP</displayName><value>GZIP</value></allowableValues><allowableValues><displayName>LZ4</displayName><value>LZ4</value></allowableValues><allowableValues><displayName>SNAPPY</displayName><value>SNAPPY</value></allowableValues><allowableValues><displayName>AUTOMATIC</displayName><value>AUTOMATIC</value></allowableValues><defaultValue>NONE</defaultValue><description></description><displayName>Compression codec</displayName><dynamic>false</dynamic><name>Compression codec</name><required>true</required><sensitive>false</sensitive><supportsEl>false</supportsEl></value></entry></descriptors><lossTolerant>false</lossTolerant><penaltyDuration>30 sec</penaltyDuration><properties><entry><key>Hadoop Configuration Resources</key><value>/etc/hadoop/2.4.0.0-169/0/hdfs-site.xml,/etc/hadoop/2.4.0.0-169/0/core-site.xml</value></entry><entry><key>Kerberos Principal</key></entry><entry><key>Kerberos Keytab</key></entry><entry><key>Kerberos Relogin Period</key></entry><entry><key>Directory</key><value>/user/bigdata_music/wikidata</value></entry><entry><key>Conflict Resolution Strategy</key></entry><entry><key>Block Size</key></entry><entry><key>IO Buffer Size</key></entry><entry><key>Replication</key></entry><entry><key>Permissions umask</key></entry><entry><key>Remote Owner</key></entry><entry><key>Remote Group</key></entry><entry><key>Compression codec</key></entry></properties><runDurationMillis>0</runDurationMillis><schedulingPeriod>0 sec</schedulingPeriod><schedulingStrategy>TIMER_DRIVEN</schedulingStrategy><yieldDuration>1 sec</yieldDuration></config><name>PutHDFS_wikidata</name><relationships><autoTerminate>true</autoTerminate><description>Files that could not be written to HDFS for some reason are transferred to this relationship</description><name>failure</name></relationships><relationships><autoTerminate>true</autoTerminate><description>Files that have been successfully written to HDFS are transferred to this relationship</description><name>success</name></relationships><state>RUNNING</state><style/><supportsEventDriven>false</supportsEventDriven><supportsParallelProcessing>true</supportsParallelProcessing><type>org.apache.nifi.processors.hadoop.PutHDFS</type></processors><processors><id>5c274137-c31b-4b43-842d-3e047a9b8908</id><parentGroupId>7c84501d-d10c-407c-b9f3-1d80e38fe36a</parentGroupId><position><x>-1457.8220376968384</x><y>455.62410736083984</y></position><config><bulletinLevel>WARN</bulletinLevel><comments></comments><concurrentlySchedulableTaskCount>1</concurrentlySchedulableTaskCount><defaultConcurrentTasks><entry><key>TIMER_DRIVEN</key><value>1</value></entry><entry><key>EVENT_DRIVEN</key><value>0</value></entry><entry><key>CRON_DRIVEN</key><value>1</value></entry></defaultConcurrentTasks><defaultSchedulingPeriod><entry><key>TIMER_DRIVEN</key><value>0 sec</value></entry><entry><key>CRON_DRIVEN</key><value>* * * * * ?</value></entry></defaultSchedulingPeriod><descriptors><entry><key>Hadoop Configuration Resources</key><value><description>A file or comma separated list of files which contains the Hadoop file system configuration. Without this, Hadoop will search the classpath for a 'core-site.xml' and 'hdfs-site.xml' file or will revert to a default configuration.</description><displayName>Hadoop Configuration Resources</displayName><dynamic>false</dynamic><name>Hadoop Configuration Resources</name><required>false</required><sensitive>false</sensitive><supportsEl>false</supportsEl></value></entry><entry><key>Kerberos Principal</key><value><description>Kerberos principal to authenticate as. Requires nifi.kerberos.krb5.file to be set in your nifi.properties</description><displayName>Kerberos Principal</displayName><dynamic>false</dynamic><name>Kerberos Principal</name><required>false</required><sensitive>false</sensitive><supportsEl>false</supportsEl></value></entry><entry><key>Kerberos Keytab</key><value><description>Kerberos keytab associated with the principal. Requires nifi.kerberos.krb5.file to be set in your nifi.properties</description><displayName>Kerberos Keytab</displayName><dynamic>false</dynamic><name>Kerberos Keytab</name><required>false</required><sensitive>false</sensitive><supportsEl>false</supportsEl></value></entry><entry><key>Kerberos Relogin Period</key><value><defaultValue>4 hours</defaultValue><description>Period of time which should pass before attempting a kerberos relogin</description><displayName>Kerberos Relogin Period</displayName><dynamic>false</dynamic><name>Kerberos Relogin Period</name><required>false</required><sensitive>false</sensitive><supportsEl>false</supportsEl></value></entry><entry><key>Directory</key><value><description>The parent HDFS directory to which files should be written</description><displayName>Directory</displayName><dynamic>false</dynamic><name>Directory</name><required>true</required><sensitive>false</sensitive><supportsEl>true</supportsEl></value></entry><entry><key>Conflict Resolution Strategy</key><value><allowableValues><displayName>replace</displayName><value>replace</value></allowableValues><allowableValues><displayName>ignore</displayName><value>ignore</value></allowableValues><allowableValues><displayName>fail</displayName><value>fail</value></allowableValues><defaultValue>fail</defaultValue><description>Indicates what should happen when a file with the same name already exists in the output directory</description><displayName>Conflict Resolution Strategy</displayName><dynamic>false</dynamic><name>Conflict Resolution Strategy</name><required>true</required><sensitive>false</sensitive><supportsEl>false</supportsEl></value></entry><entry><key>Block Size</key><value><description>Size of each block as written to HDFS. This overrides the Hadoop Configuration</description><displayName>Block Size</displayName><dynamic>false</dynamic><name>Block Size</name><required>false</required><sensitive>false</sensitive><supportsEl>false</supportsEl></value></entry><entry><key>IO Buffer Size</key><value><description>Amount of memory to use to buffer file contents during IO. This overrides the Hadoop Configuration</description><displayName>IO Buffer Size</displayName><dynamic>false</dynamic><name>IO Buffer Size</name><required>false</required><sensitive>false</sensitive><supportsEl>false</supportsEl></value></entry><entry><key>Replication</key><value><description>Number of times that HDFS will replicate each file. This overrides the Hadoop Configuration</description><displayName>Replication</displayName><dynamic>false</dynamic><name>Replication</name><required>false</required><sensitive>false</sensitive><supportsEl>false</supportsEl></value></entry><entry><key>Permissions umask</key><value><description>A umask represented as an octal number which determines the permissions of files written to HDFS. This overrides the Hadoop Configuration dfs.umaskmode</description><displayName>Permissions umask</displayName><dynamic>false</dynamic><name>Permissions umask</name><required>false</required><sensitive>false</sensitive><supportsEl>false</supportsEl></value></entry><entry><key>Remote Owner</key><value><description>Changes the owner of the HDFS file to this value after it is written. This only works if NiFi is running as a user that has HDFS super user privilege to change owner</description><displayName>Remote Owner</displayName><dynamic>false</dynamic><name>Remote Owner</name><required>false</required><sensitive>false</sensitive><supportsEl>false</supportsEl></value></entry><entry><key>Remote Group</key><value><description>Changes the group of the HDFS file to this value after it is written. This only works if NiFi is running as a user that has HDFS super user privilege to change group</description><displayName>Remote Group</displayName><dynamic>false</dynamic><name>Remote Group</name><required>false</required><sensitive>false</sensitive><supportsEl>false</supportsEl></value></entry><entry><key>Compression codec</key><value><allowableValues><displayName>NONE</displayName><value>NONE</value></allowableValues><allowableValues><displayName>DEFAULT</displayName><value>DEFAULT</value></allowableValues><allowableValues><displayName>BZIP</displayName><value>BZIP</value></allowableValues><allowableValues><displayName>GZIP</displayName><value>GZIP</value></allowableValues><allowableValues><displayName>LZ4</displayName><value>LZ4</value></allowableValues><allowableValues><displayName>SNAPPY</displayName><value>SNAPPY</value></allowableValues><allowableValues><displayName>AUTOMATIC</displayName><value>AUTOMATIC</value></allowableValues><defaultValue>NONE</defaultValue><description></description><displayName>Compression codec</displayName><dynamic>false</dynamic><name>Compression codec</name><required>true</required><sensitive>false</sensitive><supportsEl>false</supportsEl></value></entry></descriptors><lossTolerant>false</lossTolerant><penaltyDuration>30 sec</penaltyDuration><properties><entry><key>Hadoop Configuration Resources</key><value>/etc/hadoop/2.4.0.0-169/0/hdfs-site.xml,/etc/hadoop/2.4.0.0-169/0/core-site.xml</value></entry><entry><key>Kerberos Principal</key></entry><entry><key>Kerberos Keytab</key></entry><entry><key>Kerberos Relogin Period</key></entry><entry><key>Directory</key><value>/user/bigdata_music/errors</value></entry><entry><key>Conflict Resolution Strategy</key></entry><entry><key>Block Size</key></entry><entry><key>IO Buffer Size</key></entry><entry><key>Replication</key></entry><entry><key>Permissions umask</key></entry><entry><key>Remote Owner</key></entry><entry><key>Remote Group</key></entry><entry><key>Compression codec</key></entry></properties><runDurationMillis>0</runDurationMillis><schedulingPeriod>0 sec</schedulingPeriod><schedulingStrategy>TIMER_DRIVEN</schedulingStrategy><yieldDuration>1 sec</yieldDuration></config><name>PutHDFS_wikidata</name><relationships><autoTerminate>true</autoTerminate><description>Files that could not be written to HDFS for some reason are transferred to this relationship</description><name>failure</name></relationships><relationships><autoTerminate>true</autoTerminate><description>Files that have been successfully written to HDFS are transferred to this relationship</description><name>success</name></relationships><state>RUNNING</state><style/><supportsEventDriven>false</supportsEventDriven><supportsParallelProcessing>true</supportsParallelProcessing><type>org.apache.nifi.processors.hadoop.PutHDFS</type></processors><processors><id>a90db015-9618-44e7-b017-756f8678e110</id><parentGroupId>7c84501d-d10c-407c-b9f3-1d80e38fe36a</parentGroupId><position><x>1501.856689453125</x><y>784.4349060058594</y></position><config><bulletinLevel>WARN</bulletinLevel><comments></comments><concurrentlySchedulableTaskCount>1</concurrentlySchedulableTaskCount><defaultConcurrentTasks><entry><key>TIMER_DRIVEN</key><value>1</value></entry><entry><key>EVENT_DRIVEN</key><value>0</value></entry><entry><key>CRON_DRIVEN</key><value>1</value></entry></defaultConcurrentTasks><defaultSchedulingPeriod><entry><key>TIMER_DRIVEN</key><value>0 sec</value></entry><entry><key>CRON_DRIVEN</key><value>* * * * * ?</value></entry></defaultSchedulingPeriod><descriptors><entry><key>Hadoop Configuration Resources</key><value><description>A file or comma separated list of files which contains the Hadoop file system configuration. Without this, Hadoop will search the classpath for a 'core-site.xml' and 'hdfs-site.xml' file or will revert to a default configuration.</description><displayName>Hadoop Configuration Resources</displayName><dynamic>false</dynamic><name>Hadoop Configuration Resources</name><required>false</required><sensitive>false</sensitive><supportsEl>false</supportsEl></value></entry><entry><key>Kerberos Principal</key><value><description>Kerberos principal to authenticate as. Requires nifi.kerberos.krb5.file to be set in your nifi.properties</description><displayName>Kerberos Principal</displayName><dynamic>false</dynamic><name>Kerberos Principal</name><required>false</required><sensitive>false</sensitive><supportsEl>false</supportsEl></value></entry><entry><key>Kerberos Keytab</key><value><description>Kerberos keytab associated with the principal. Requires nifi.kerberos.krb5.file to be set in your nifi.properties</description><displayName>Kerberos Keytab</displayName><dynamic>false</dynamic><name>Kerberos Keytab</name><required>false</required><sensitive>false</sensitive><supportsEl>false</supportsEl></value></entry><entry><key>Kerberos Relogin Period</key><value><defaultValue>4 hours</defaultValue><description>Period of time which should pass before attempting a kerberos relogin</description><displayName>Kerberos Relogin Period</displayName><dynamic>false</dynamic><name>Kerberos Relogin Period</name><required>false</required><sensitive>false</sensitive><supportsEl>false</supportsEl></value></entry><entry><key>Directory</key><value><description>The parent HDFS directory to which files should be written</description><displayName>Directory</displayName><dynamic>false</dynamic><name>Directory</name><required>true</required><sensitive>false</sensitive><supportsEl>true</supportsEl></value></entry><entry><key>Conflict Resolution Strategy</key><value><allowableValues><displayName>replace</displayName><value>replace</value></allowableValues><allowableValues><displayName>ignore</displayName><value>ignore</value></allowableValues><allowableValues><displayName>fail</displayName><value>fail</value></allowableValues><defaultValue>fail